/*--------------------------------*- C++ -*----------------------------------*\
| =========                 |                                                 |
| \\      /  F ield         | OpenFOAM: The Open Source CFD Toolbox           |
|  \\    /   O peration     | Version:  v1806                                 |
|   \\  /    A nd           | Web:      www.OpenFOAM.com                      |
|    \\/     M anipulation  |                                                 |
\*---------------------------------------------------------------------------*/
FoamFile
{
    version     2.0;
    format      ascii;
    class       dictionary;
    object      setFieldsDict;
}
// * * * * * * * * * * * * * * * * * * * * * * * * * * * * * * * * * * * * * //

defaultFieldValues
(
    volScalarFieldValue T 0
   // volVectorFieldValue U (25 0 0)
);

regions
(
   //  Set cell values
    // does zerogradient on boundaries
    boxToCell
    {
        box (2 0.2 0) (4 0.4 1);

        fieldValues
        (
            volScalarFieldValue T 10
        );
    }

    boxToCell
    {
        box (1 0.2 0) (2 0.6 1);

        fieldValues
        (
            volScalarFieldValue Source 100
        );
      }
 );
  /*   Set patch values (using ==)
    boxToFace
    {
        box (0 0 -1) (0.1461 0.292 1);

        fieldValues
        (
            volScalarFieldValue alpha1 1
         );
      }*/

// ************************************************************************* //
